Circuit: * E:\Course 021\Sensory\For your own mental heakth, dont open this folder\S&S_Project.asc

Direct Newton iteration for .op point succeeded.
Changing Tseed to 1e-008
Heightened Def Con from 6.91508e-008 